
Spectre (R) Circuit Simulator
Version 21.1.0.460.isr10 64bit -- 5 Aug 2022
Copyright (C) 1989-2022 Cadence Design Systems, Inc. All rights reserved worldwide. Cadence and Spectre are registered trademarks of Cadence Design Systems, Inc. All others are the property of their respective holders.

Includes RSA BSAFE(R) Cryptographic or Security Protocol Software from RSA Security, Inc.

User: sevangel   Host: cn88.it.auth.gr   HostID: CF9B5860   PID: 1913295
Memory  available: 44.2967 GB  physical: 50.2111 GB
Linux   : Rocky Linux release 9.7 (Blue Onyx)
CPU Type: Intel(R) Xeon(R) Gold 6230 CPU @ 2.10GHz
All processors running at 2095.1 MHz
        Socket: Processors
        0:       0,  1,  2,  3,  4,  5,  6,  7,  8,  9
                10, 11
        
System load averages (1min, 5min, 15min) : 2.4 %, 1.6 %, 1.0 %
HPC is enabled
This is a virtual machine
Affinity is set by user to processors:  7 10 

Simulating `input.scs' on cn88.it.auth.gr at 8:06:33 PM, Mon Dec 29, 2025 (process id: 1913295).
Current working directory: /home/s/sevangel/VLSI_Design_Task/SchmittTriggerDesign/SchmittTriggerTest/spectre/schematic/netlist
Command line:
     \
        /mnt/apps/prebuilt/EDA/cadence/2022-23/RHELx86/SPECTRE/tools.lnx86/bin/spectre  \
        -64 input.scs +escchars +log ../psf/spectre.out -format psfxl  \
        -raw ../psf +aps +lqtimeout 900 -maxw 5 -maxn 5 -env ade

Licensing Information:
[20:06:33.187761] Configured Lic search path (21.01-s002): 5280@cadence.it.auth.gr

Licensing Information:
[20:06:34.035650] Periodic Lic check successful

Loading /mnt/apps/prebuilt/EDA/cadence/2022-23/RHELx86/SPECTRE/tools.lnx86/cmi/lib/64bit/5.0/libinfineon_sh.so ...
Loading /mnt/apps/prebuilt/EDA/cadence/2022-23/RHELx86/SPECTRE/tools.lnx86/cmi/lib/64bit/5.0/libphilips_o_sh.so ...
Loading /mnt/apps/prebuilt/EDA/cadence/2022-23/RHELx86/SPECTRE/tools.lnx86/cmi/lib/64bit/5.0/libphilips_sh.so ...
Loading /mnt/apps/prebuilt/EDA/cadence/2022-23/RHELx86/SPECTRE/tools.lnx86/cmi/lib/64bit/5.0/libsparam_sh.so ...
Loading /mnt/apps/prebuilt/EDA/cadence/2022-23/RHELx86/SPECTRE/tools.lnx86/cmi/lib/64bit/5.0/libstmodels_sh.so ...
Reading file:  /home/s/sevangel/VLSI_Design_Task/SchmittTriggerDesign/SchmittTriggerTest/spectre/schematic/netlist/input.scs
Reading link:  /mnt/apps/prebuilt/EDA/cadence/2022-23/RHELx86/SPECTRE
Reading file:  /mnt/apps/prebuilt/EDA/cadence/2022-23/RHELx86/SPECTRE_21.10.460/tools.lnx86/spectre/etc/configs/spectre.cfg
Reading file:  /mnt/apps/prebuilt/EDA/designkits/GPDK/gpdk045_v_6_0/models/spectre/gpdk045.scs
Reading file:  /mnt/apps/prebuilt/EDA/designkits/GPDK/gpdk045_v_6_0/models/spectre/gpdk045_mos.scs
Reading file:  /mnt/apps/prebuilt/EDA/designkits/GPDK/gpdk045_v_6_0/models/spectre/gpdk045_diode.scs
Reading file:  /mnt/apps/prebuilt/EDA/designkits/GPDK/gpdk045_v_6_0/models/spectre/gpdk045_bipolar.scs
Reading file:  /mnt/apps/prebuilt/EDA/designkits/GPDK/gpdk045_v_6_0/models/spectre/gpdk045_mimcap.scs
Reading file:  /mnt/apps/prebuilt/EDA/designkits/GPDK/gpdk045_v_6_0/models/spectre/gpdk045_moscap.scs
Reading file:  /mnt/apps/prebuilt/EDA/designkits/GPDK/gpdk045_v_6_0/models/spectre/gpdk045_resistor.scs
Reading file:  /mnt/apps/prebuilt/EDA/designkits/GPDK/gpdk045_v_6_0/models/spectre/gpdk045_inductor.scs
Reading file:  /mnt/apps/prebuilt/EDA/designkits/GPDK/gpdk045_v_6_0/models/spectre/gpdk045_soa.scs
Time for NDB Parsing: CPU = 499.985 ms, elapsed = 901.118 ms.
Time accumulated: CPU = 593.142 ms, elapsed = 901.121 ms.
Peak resident memory used = 122 Mbytes.

Reading link:  /mnt/apps/prebuilt/EDA/cadence/2022-23/RHELx86/SPECTRE/tools.lnx86/spectre/etc/ahdl/discipline.h
Reading file:  /mnt/apps/prebuilt/EDA/cadence/2022-23/RHELx86/SPECTRE_21.10.460/tools.lnx86/spectre/etc/ahdl/disciplines.vams
Reading link:  /mnt/apps/prebuilt/EDA/cadence/2022-23/RHELx86/SPECTRE/tools.lnx86/spectre/etc/ahdl/constants.h
Reading file:  /mnt/apps/prebuilt/EDA/cadence/2022-23/RHELx86/SPECTRE_21.10.460/tools.lnx86/spectre/etc/ahdl/constants.vams
Existing shared object for module bsource_2b273e is up to date.
Installed compiled interface for bsource_2b273e.
Time for Elaboration: CPU = 30.862 ms, elapsed = 40.446 ms.
Time accumulated: CPU = 624.143 ms, elapsed = 941.712 ms.
Peak resident memory used = 133 Mbytes.


Notice from spectre during hierarchy flattening.
    The value 'psf' specified for the 'checklimitdest' option will no longer be supported in future releases. Use 'spectre -h' to see other recommended values for the 'checklimitdest' option.


Time for EDB Visiting: CPU = 1.55 ms, elapsed = 1.62792 ms.
Time accumulated: CPU = 625.834 ms, elapsed = 943.479 ms.
Peak resident memory used = 134 Mbytes.


Warning from spectre during initial setup.
    WARNING (CMI-2426): I0.NM3: `Pdiblc2' = -1.54576e-09 is negative.
Notice from spectre during initial setup.
    Multithreading is disabled due to the size of the design being too small.


Global user options:
         psfversion = 1.4.0
            vabstol = 1e-06
            iabstol = 1e-12
               temp = 27
               gmin = 1e-12
             rforce = 1
           maxnotes = 5
           maxwarns = 5
             digits = 5
               cols = 80
             pivrel = 0.001
           sensfile = ../psf/sens.output
     checklimitdest = psf
               save = allpub
             reltol = 0.001
               tnom = 27
             scalem = 1
              scale = 1

Scoped user options:

Circuit inventory:
              nodes 15
              bsim4 8     
     bsource_2b273e 8     
          capacitor 1     
            vsource 3     

Analysis and control statement inventory:
               info 7     
               tran 1     

Output statements:
             .probe 0     
           .measure 0     
               save 0     


Notice from spectre during initial setup.
    1 vsources are shorted because their absolute value is less than or equal to 'vabsshort'.
    APS enabled.
Warning from spectre during initial setup.
    WARNING (CMI-2426): I0.NM3: `Pdiblc2' = -1.54576e-09 is negative.

Time for parsing: CPU = 2.86 ms, elapsed = 7.32589 ms.
Time accumulated: CPU = 628.788 ms, elapsed = 950.926 ms.
Peak resident memory used = 137 Mbytes.

~~~~~~~~~~~~~~~~~~~~~~
Pre-Simulation Summary
~~~~~~~~~~~~~~~~~~~~~~
   -   (APS) Multi-threading. The recommended number of threads is 1, consider adding +mt=1 on command line.
~~~~~~~~~~~~~~~~~~~~~~

************************************************
Transient Analysis `tran': time = (0 s -> 40 ns)
************************************************
Trying `homotopy = gmin' for initial conditions.
DC simulation time: CPU = 4.916 ms, elapsed = 4.96602 ms.

Opening the PSFXL file ../psf/tran.tran.tran ...
Important parameter values:
    start = 0 s
    outputstart = 0 s
    stop = 40 ns
    step = 40 ps
    maxstep = 800 ps
    ic = all
    useprevic = no
    skipdc = no
    reltol = 1e-03
    abstol(V) = 1 uV
    abstol(I) = 1 pA
    temp = 27 C
    tnom = 27 C
    tempeffects = all
    errpreset = moderate
    method = traponly
    lteratio = 3.5
    relref = sigglobal
    cmin = 0 F
    gmin = 1 pS
    rabsshort = 1 mOhm


Notice from spectre during transient analysis `tran'.
    Multithreading is disabled due to the size of the design being too small.


Output and IC/nodeset summary:
                 save   2       (current)
                 save   14      (voltage)
                 others 1       

    tran: time = 1.279 ns     (3.2 %), step = 640 ps        (1.6 %)
    tran: time = 3.08 ns      (7.7 %), step = 765.1 ps     (1.91 %)
    tran: time = 5.48 ns     (13.7 %), step = 800 ps          (2 %)
    tran: time = 7.08 ns     (17.7 %), step = 800 ps          (2 %)
    tran: time = 9.064 ns    (22.7 %), step = 129.5 ps     (324 m%)
    tran: time = 11.75 ns    (29.4 %), step = 800 ps          (2 %)
    tran: time = 13.29 ns    (33.2 %), step = 552.2 ps     (1.38 %)
    tran: time = 15.68 ns    (39.2 %), step = 800 ps          (2 %)
    tran: time = 17.28 ns    (43.2 %), step = 800 ps          (2 %)
    tran: time = 19.09 ns    (47.7 %), step = 202 ps       (505 m%)
    tran: time = 21.25 ns    (53.1 %), step = 456.1 ps     (1.14 %)
    tran: time = 23.71 ns    (59.3 %), step = 800 ps          (2 %)
    tran: time = 25.31 ns    (63.3 %), step = 800 ps          (2 %)
    tran: time = 27.71 ns    (69.3 %), step = 800 ps          (2 %)
    tran: time = 29 ns       (72.5 %), step = 133.3 ps     (333 m%)
    tran: time = 31.08 ns    (77.7 %), step = 539.8 ps     (1.35 %)
    tran: time = 33.08 ns    (82.7 %), step = 549.6 ps     (1.37 %)
    tran: time = 35.48 ns    (88.7 %), step = 800 ps          (2 %)
    tran: time = 37.08 ns    (92.7 %), step = 800 ps          (2 %)
    tran: time = 39.12 ns    (97.8 %), step = 209.1 ps     (523 m%)
Number of accepted tran steps =             218

Maximum value achieved for any signal of each quantity: 
V: V(I0.net38) = 1.201 V
I: I(V0:p) = 395.5 uA
If your circuit contains signals of the same quantity that are vastly different in size (such as high voltage circuitry combined with low voltage control circuitry), you should consider specifying global option `bin_relref=yes'.

~~~~~~~~~~~~~~~~~~~~~~~~~~~~~~~~~
Post-Transient Simulation Summary
~~~~~~~~~~~~~~~~~~~~~~~~~~~~~~~~~
   -   To further speed up simulation, consider
          add ++aps on command line
~~~~~~~~~~~~~~~~~~~~~~~~~~~~~~~~~


During simulation, the CPU load for active processors is :
         1 (1.0 %)       3 (1.0 %)       4 (3.1 %)       6 (1.0 %)
         7 (20.6 %)     10 (72.2 %)     
        Total: 99.0%
Initial condition solution time: CPU = 4.973 ms, elapsed = 5.02396 ms.
Intrinsic tran analysis time:    CPU = 25.643 ms, elapsed = 31.5371 ms.
Total time required for tran analysis `tran': CPU = 32.507 ms, elapsed = 39.6841 ms, util. = 81.9%.
Time accumulated: CPU = 669.356 ms, elapsed = 1.00468 s.
Peak resident memory used = 144 Mbytes.

finalTimeOP: writing operating point information to rawfile.

Opening the PSF file ../psf/finalTimeOP.info ...
modelParameter: writing model parameter values to rawfile.

Opening the PSF file ../psf/modelParameter.info ...
element: writing instance parameter values to rawfile.

Opening the PSF file ../psf/element.info ...
outputParameter: writing output parameter values to rawfile.

Opening the PSF file ../psf/outputParameter.info ...
designParamVals: writing netlist parameters to rawfile.

Opening the PSFASCII file ../psf/designParamVals.info ...
primitives: writing primitives to rawfile.

Opening the PSFASCII file ../psf/primitives.info.primitives ...
subckts: writing subcircuits to rawfile.

Opening the PSFASCII file ../psf/subckts.info.subckts ...
Licensing Information:
Lic Summary:
[20:06:34.258827] Cdslmd servers:5280@cadence.it.auth.gr
[20:06:34.258857] Feature usage summary:
[20:06:34.258858] Virtuoso_Multi_mode_Simulation


Aggregate audit (8:06:34 PM, Mon Dec 29, 2025):
Time used: CPU = 694 ms, elapsed = 1.04 s, util. = 66.4%.
Time spent in licensing: elapsed = 94.4 ms, percentage of total = 9.04%.
Peak memory used = 145 Mbytes.
Simulation started at: 8:06:33 PM, Mon Dec 29, 2025, ended at: 8:06:34 PM, Mon Dec 29, 2025, with elapsed time (wall clock): 1.04 s.
spectre completes with 0 errors, 2 warnings, and 6 notices.
